@<TRIPOS>MOLECULE
NONAME
76 80 1 0 0 
SMALL
USER_CHARGES


@<TRIPOS>ATOM
  1 H       -8.1820     0.5800    -6.3150 H     1 <1>   0.4000 
  2 N       -7.2640     0.2850    -5.9490 N.pl3 1 <1>  -0.8840 
  3 H       -7.0750    -0.7270    -6.0170 H     1 <1>   0.4000 
  4 C       -6.8990     0.8700    -4.7390 C.2   1 <1>   0.4620 
  5 N       -5.9900     0.3910    -3.9340 N.2   1 <1>  -0.5650 
  6 C       -5.8600     1.2110    -2.8320 C.2   1 <1>   0.1410 
  7 C       -6.6950     2.2970    -2.8450 C.2   1 <1>  -0.1100 
  8 H       -6.7740     3.0560    -2.1100 H     1 <1>   0.1500 
  9 S       -7.6740     2.3290    -4.2490 S.3   1 <1>  -0.0800 
 10 C       -4.9100     0.9270    -1.7620 C.2   1 <1>   0.5360 
 11 N       -4.6860     1.8090    -0.8500 N.2   1 <1>  -0.5130 
 12 O       -3.7890     1.5190     0.0960 O.3   1 <1>  -0.2170 
 13 C       -3.5780     2.5760     1.0700 C.3   1 <1>   0.0940 
 14 H       -4.0260     3.5110     0.7530 H     1 <1>   0.0800 
 15 C       -2.0800     2.7380     1.2440 C.2   1 <1>   0.9060 
 16 O       -1.6050     3.8770     1.0440 O.co2 1 <1>  -0.9000 
 17 O       -1.4060     1.7440     1.5950 O.co2 1 <1>  -0.9000 
 18 C       -4.1750     2.1260     2.4180 C.3   1 <1>   0.1200 
 19 H       -3.9070     2.8470     3.1910 H     1 <1>   0.0800 
 20 H       -3.8060     1.1410     2.6950 H     1 <1>   0.0800 
 21 O       -5.6170     2.1380     2.2400 O.3   1 <1>  -0.3630 
 22 C       -6.3530     1.0420     1.8760 C.ar  1 <1>   0.0820 
 23 C       -7.4110     1.2400     0.9880 C.ar  1 <1>  -0.1500 
 24 H       -7.6380     2.2140     0.6370 H     1 <1>   0.1500 
 25 C       -8.1520     0.1500     0.5560 C.ar  1 <1>  -0.1500 
 26 H       -8.9520     0.2960    -0.1240 H     1 <1>   0.1500 
 27 C       -7.8430    -1.1400     1.0120 C.ar  1 <1>  -0.0220 
 28 C       -6.8030    -1.3180     1.9350 C.ar  1 <1>  -0.1500 
 29 H       -6.5820    -2.2860     2.3030 H     1 <1>   0.1500 
 30 C       -6.0550    -0.2330     2.3670 C.ar  1 <1>  -0.1500 
 31 H       -5.2730    -0.3780     3.0660 H     1 <1>   0.1500 
 32 C       -8.5940    -2.2900     0.5420 C.cat 1 <1>   0.7310 
 33 N       -8.6900    -2.6560    -0.7320 N.pl3 1 <1>  -0.7940 
 34 H       -9.2660    -3.4830    -0.9620 H     1 <1>   0.4500 
 35 C       -8.0180    -1.9840    -1.8460 C.3   1 <1>   0.4100 
 36 H       -7.3320    -1.1880    -1.5600 H     1 <1>   0.0800 
 37 C       -9.0680    -1.4440    -2.8330 C.3   1 <1>  -0.1600 
 38 H      -10.0920    -1.5910    -2.4860 H     1 <1>   0.0800 
 39 H       -8.8820    -0.3870    -3.0220 H     1 <1>   0.0800 
 40 C       -8.8090    -2.2560    -4.1020 C.3   1 <1>   0.3430 
 41 H       -9.0490    -1.6930    -5.0030 H     1 <1>   0.0800 
 42 H       -9.4110    -3.1640    -4.0560 H     1 <1>   0.0800 
 43 N       -7.3920    -2.6340    -4.0610 N.4   1 <1>  -0.9060 
 44 H       -6.8270    -1.8110    -4.2170 H     1 <1>   0.4500 
 45 H       -7.1570    -3.3700    -4.7110 H     1 <1>   0.4500 
 46 C       -7.2690    -3.0400    -2.6580 C.3   1 <1>   0.3430 
 47 H       -7.7740    -3.9990    -2.5310 H     1 <1>   0.0800 
 48 H       -6.2260    -3.1240    -2.3550 H     1 <1>   0.0800 
 49 N       -9.2380    -3.0730     1.3890 N.pl3 1 <1>  -0.7540 
 50 H       -9.7670    -3.8930     1.0470 H     1 <1>   0.4500 
 51 H       -9.2190    -2.8750     2.4040 H     1 <1>   0.4500 
 52 C       -4.2260    -0.3570    -1.7590 C.2   1 <1>   0.6300 
 53 O       -3.3440    -0.6460    -2.5680 O.2   1 <1>  -0.5700 
 54 N       -4.6150    -1.2850    -0.8210 N.am  1 <1>  -0.6550 
 55 H       -5.3190    -1.0130    -0.1170 H     1 <1>   0.3700 
 56 C       -3.9630    -2.5880    -0.6480 C.3   1 <1>   0.2780 
 57 H       -3.6660    -3.0280    -1.5910 H     1 <1>   0.0000 
 58 C       -4.8120    -3.5120     0.2440 C.2   1 <1>   0.7530 
 59 O       -5.8870    -4.0760     0.1620 O.2   1 <1>  -0.5700 
 60 N       -3.8380    -3.4500     1.2000 N.am  1 <1>  -0.6810 
 61 C       -2.8700    -2.6290     0.4680 C.3   1 <1>   0.3070 
 62 H       -1.9640    -3.1420     0.1730 H     1 <1>   0.0000 
 63 C       -2.5790    -1.2620     1.1260 C.3   1 <1>   0.0960 
 64 H       -3.4920    -0.8520     1.5340 H     1 <1>   0.0800 
 65 H       -2.1200    -0.6190     0.3870 H     1 <1>   0.0800 
 66 N       -1.6220    -1.4710     2.2080 N.pl3 1 <1>   0.3140 
 67 N       -0.3860    -1.9450     2.0450 N.2   1 <1>  -0.7070 
 68 C        0.0740    -1.9310     3.2550 C.2   1 <1>   0.3660 
 69 H        1.0530    -2.2540     3.4960 H     1 <1>   0.1500 
 70 N       -0.7900    -1.4710     4.1820 N.2   1 <1>  -0.5650 
 71 C       -1.8390    -1.1870     3.4960 C.2   1 <1>   0.0360 
 72 H       -2.7640    -0.7910     3.8290 H     1 <1>   0.1500 
 73 S       -3.7760    -4.1760     2.7230 S.o2  1 <1>   1.5880 
 74 O       -4.3000    -3.1890     3.6430 O.co2 1 <1>  -0.8170 
 75 O       -2.3820    -4.4880     2.9530 O.co2 1 <1>  -0.8170 
 76 O       -4.6100    -5.3560     2.6280 O.co2 1 <1>  -0.8170 
@<TRIPOS>BOND
  1   1   2  1   
  2   2   3  1   
  3   2   4  1   
  4   4   5  2   
  5   4   9  1   
  6   5   6  1   
  7   6   7  2   
  8   6  10  1   
  9   7   8  1   
 10   7   9  1   
 11  10  11  2   
 12  10  52  1   
 13  11  12  1   
 14  12  13  1   
 15  13  14  1   
 16  13  15  1   
 17  13  18  1   
 18  15  16  ar  
 19  15  17  ar  
 20  18  19  1   
 21  18  20  1   
 22  18  21  1   
 23  21  22  1   
 24  22  23  ar  
 25  22  30  ar  
 26  23  24  1   
 27  23  25  ar  
 28  25  26  1   
 29  25  27  ar  
 30  27  28  ar  
 31  27  32  1   
 32  28  29  1   
 33  28  30  ar  
 34  30  31  1   
 35  32  33  ar  
 36  32  49  ar  
 37  33  34  1   
 38  33  35  1   
 39  35  36  1   
 40  35  37  1   
 41  35  46  1   
 42  37  38  1   
 43  37  39  1   
 44  37  40  1   
 45  40  41  1   
 46  40  42  1   
 47  40  43  1   
 48  43  44  1   
 49  43  45  1   
 50  43  46  1   
 51  46  47  1   
 52  46  48  1   
 53  49  50  1   
 54  49  51  1   
 55  52  53  2   
 56  52  54  am  
 57  54  55  1   
 58  54  56  1   
 59  56  57  1   
 60  56  58  1   
 61  56  61  1   
 62  58  59  2   
 63  58  60  am  
 64  60  61  1   
 65  60  73  am  
 66  61  62  1   
 67  61  63  1   
 68  63  64  1   
 69  63  65  1   
 70  63  66  1   
 71  66  67  1   
 72  66  71  1   
 73  67  68  2   
 74  68  69  1   
 75  68  70  1   
 76  70  71  2   
 77  71  72  1   
 78  73  74  ar  
 79  73  75  ar  
 80  73  76  ar  
@<TRIPOS>SUBSTRUCTURE
  1 ****  54 GROUP 4 **** **** 0
@<TRIPOS>PROPERTY_DATA
restraint_1_dist	|	5.89895
restraint_2_dist	|	6.269
NMR_conf	|	True
E_initial	|	140.99
glob	|	0.266608
rgyr	|	4.30997
Boltzmann_pop(%)	|	31.89
mol_super_score	|	-17.8519
AM1_dipole	|	36.2124
dipole	|	15.1729

# MOE 2018.01 (io_trps.svl 2018.01)

@<TRIPOS>MOLECULE
NONAME
76 80 1 0 0 
SMALL
USER_CHARGES


@<TRIPOS>ATOM
  1 H       -9.5130    -3.8450     4.7830 H     1 <1>   0.4000 
  2 N       -9.1490    -4.0200     3.8340 N.pl3 1 <1>  -0.8840 
  3 H       -8.3470    -4.6670     3.7890 H     1 <1>   0.4000 
  4 C       -9.0330    -2.8870     3.0310 C.2   1 <1>   0.4620 
  5 N       -8.2810    -2.8120     1.9670 N.2   1 <1>  -0.5650 
  6 C       -8.4060    -1.5630     1.3930 C.2   1 <1>   0.1410 
  7 C       -9.2580    -0.7250     2.0610 C.2   1 <1>  -0.1100 
  8 H       -9.5060     0.2740     1.8100 H     1 <1>   0.1500 
  9 S       -9.9400    -1.4790     3.4380 S.3   1 <1>  -0.0800 
 10 C       -7.6900    -1.1960     0.1760 C.2   1 <1>   0.5360 
 11 N       -7.9600    -0.0890    -0.4240 N.2   1 <1>  -0.5130 
 12 O       -7.2790     0.2030    -1.5350 O.3   1 <1>  -0.2170 
 13 C       -7.7030     1.4310    -2.1890 C.3   1 <1>   0.0940 
 14 H       -8.7840     1.4830    -2.2370 H     1 <1>   0.0800 
 15 C       -7.1400     1.4300    -3.6010 C.2   1 <1>   0.9060 
 16 O       -7.9620     1.5410    -4.5360 O.co2 1 <1>  -0.9000 
 17 O       -5.9040     1.3410    -3.7630 O.co2 1 <1>  -0.9000 
 18 C       -7.1710     2.6620    -1.4140 C.3   1 <1>   0.1200 
 19 H       -7.7280     2.7900    -0.4890 H     1 <1>   0.0800 
 20 H       -7.3120     3.5560    -2.0220 H     1 <1>   0.0800 
 21 O       -5.7470     2.4700    -1.1580 O.3   1 <1>  -0.3630 
 22 C       -5.1670     1.9410    -0.0300 C.ar  1 <1>   0.0820 
 23 C       -5.8750     1.7730     1.1660 C.ar  1 <1>  -0.1500 
 24 H       -6.8840     2.0760     1.2540 H     1 <1>   0.1500 
 25 C       -5.2430     1.1960     2.2560 C.ar  1 <1>  -0.1500 
 26 H       -5.7770     1.0690     3.1630 H     1 <1>   0.1500 
 27 C       -3.9070     0.7780     2.1640 C.ar  1 <1>  -0.0220 
 28 C       -3.2010     0.9860     0.9710 C.ar  1 <1>  -0.1500 
 29 H       -2.1850     0.6920     0.8990 H     1 <1>   0.1500 
 30 C       -3.8260     1.5650    -0.1230 C.ar  1 <1>  -0.1500 
 31 H       -3.2930     1.7140    -1.0260 H     1 <1>   0.1500 
 32 C       -3.2500     0.1420     3.2940 C.cat 1 <1>   0.7310 
 33 N       -3.7040    -0.9370     3.9250 N.pl3 1 <1>  -0.7940 
 34 H       -3.1680    -1.2920     4.7350 H     1 <1>   0.4500 
 35 C       -4.9120    -1.6780     3.5560 C.3   1 <1>   0.4100 
 36 H       -5.3570    -1.3920     2.6050 H     1 <1>   0.0800 
 37 C       -5.9560    -1.5640     4.6820 C.3   1 <1>  -0.1600 
 38 H       -5.6360    -0.9060     5.4920 H     1 <1>   0.0800 
 39 H       -6.9030    -1.2190     4.2670 H     1 <1>   0.0800 
 40 C       -6.0950    -3.0020     5.1800 C.3   1 <1>   0.3430 
 41 H       -7.0970    -3.2080     5.5570 H     1 <1>   0.0800 
 42 H       -5.3590    -3.1630     5.9680 H     1 <1>   0.0800 
 43 N       -5.7580    -3.8620     4.0410 N.4   1 <1>  -0.9060 
 44 H       -6.4960    -3.8020     3.3540 H     1 <1>   0.4500 
 45 H       -5.5770    -4.8190     4.3050 H     1 <1>   0.4500 
 46 C       -4.5720    -3.1680     3.5330 C.3   1 <1>   0.3430 
 47 H       -3.7450    -3.3470     4.2210 H     1 <1>   0.0800 
 48 H       -4.3060    -3.5100     2.5320 H     1 <1>   0.0800 
 49 N       -2.1120     0.6140     3.7690 N.pl3 1 <1>  -0.7540 
 50 H       -1.6470     0.1540     4.5710 H     1 <1>   0.4500 
 51 H       -1.6720     1.4480     3.3440 H     1 <1>   0.4500 
 52 C       -6.6920    -2.1150    -0.3470 C.2   1 <1>   0.6300 
 53 O       -6.9880    -3.1340    -0.9690 O.2   1 <1>  -0.5700 
 54 N       -5.3670    -1.8340    -0.1000 N.am  1 <1>  -0.6550 
 55 H       -5.1210    -0.9570     0.3860 H     1 <1>   0.3700 
 56 C       -4.2700    -2.7090    -0.5290 C.3   1 <1>   0.2780 
 57 H       -4.5070    -3.7560    -0.3910 H     1 <1>   0.0000 
 58 C       -2.9310    -2.2790     0.0980 C.2   1 <1>   0.7530 
 59 O       -2.4500    -2.2370     1.2150 O.2   1 <1>  -0.5700 
 60 N       -2.4680    -1.9710    -1.1500 N.am  1 <1>  -0.6810 
 61 C       -3.6530    -2.3600    -1.9210 C.3   1 <1>   0.3070 
 62 H       -3.5180    -3.2190    -2.5660 H     1 <1>   0.0000 
 63 C       -4.3380    -1.1830    -2.6530 C.3   1 <1>   0.0960 
 64 H       -4.3180    -0.3010    -2.0290 H     1 <1>   0.0800 
 65 H       -5.3410    -1.4820    -2.9260 H     1 <1>   0.0800 
 66 N       -3.5860    -0.9260    -3.8790 N.pl3 1 <1>   0.3140 
 67 N       -3.4750    -1.7880    -4.8910 N.2   1 <1>  -0.7070 
 68 C       -2.7460    -1.1290    -5.7320 C.2   1 <1>   0.3660 
 69 H       -2.4560    -1.5270    -6.6700 H     1 <1>   0.1500 
 70 N       -2.3870     0.1050    -5.3240 N.2   1 <1>  -0.5650 
 71 C       -2.9290     0.2040    -4.1630 C.2   1 <1>   0.0360 
 72 H       -2.9040     1.0170    -3.4840 H     1 <1>   0.1500 
 73 S       -0.9470    -1.4070    -1.6190 S.o2  1 <1>   1.5880 
 74 O       -0.0200    -1.9070    -0.6260 O.co2 1 <1>  -0.8170 
 75 O       -1.0520     0.0360    -1.6220 O.co2 1 <1>  -0.8170 
 76 O       -0.7160    -1.9620    -2.9360 O.co2 1 <1>  -0.8170 
@<TRIPOS>BOND
  1   1   2  1   
  2   2   3  1   
  3   2   4  1   
  4   4   5  2   
  5   4   9  1   
  6   5   6  1   
  7   6   7  2   
  8   6  10  1   
  9   7   8  1   
 10   7   9  1   
 11  10  11  2   
 12  10  52  1   
 13  11  12  1   
 14  12  13  1   
 15  13  14  1   
 16  13  15  1   
 17  13  18  1   
 18  15  16  ar  
 19  15  17  ar  
 20  18  19  1   
 21  18  20  1   
 22  18  21  1   
 23  21  22  1   
 24  22  23  ar  
 25  22  30  ar  
 26  23  24  1   
 27  23  25  ar  
 28  25  26  1   
 29  25  27  ar  
 30  27  28  ar  
 31  27  32  1   
 32  28  29  1   
 33  28  30  ar  
 34  30  31  1   
 35  32  33  ar  
 36  32  49  ar  
 37  33  34  1   
 38  33  35  1   
 39  35  36  1   
 40  35  37  1   
 41  35  46  1   
 42  37  38  1   
 43  37  39  1   
 44  37  40  1   
 45  40  41  1   
 46  40  42  1   
 47  40  43  1   
 48  43  44  1   
 49  43  45  1   
 50  43  46  1   
 51  46  47  1   
 52  46  48  1   
 53  49  50  1   
 54  49  51  1   
 55  52  53  2   
 56  52  54  am  
 57  54  55  1   
 58  54  56  1   
 59  56  57  1   
 60  56  58  1   
 61  56  61  1   
 62  58  59  2   
 63  58  60  am  
 64  60  61  1   
 65  60  73  am  
 66  61  62  1   
 67  61  63  1   
 68  63  64  1   
 69  63  65  1   
 70  63  66  1   
 71  66  67  1   
 72  66  71  1   
 73  67  68  2   
 74  68  69  1   
 75  68  70  1   
 76  70  71  2   
 77  71  72  1   
 78  73  74  ar  
 79  73  75  ar  
 80  73  76  ar  
@<TRIPOS>SUBSTRUCTURE
  1 ****  54 GROUP 4 **** **** 0
@<TRIPOS>PROPERTY_DATA
restraint_1_dist	|	5.84748
restraint_2_dist	|	6.07403
NMR_conf	|	True
E_initial	|	141.242
glob	|	0.283497
rgyr	|	4.31797
Boltzmann_pop(%)	|	20.8521
mol_super_score	|	-18.7357
AM1_dipole	|	36.357
dipole	|	15.8733

# MOE 2018.01 (io_trps.svl 2018.01)

@<TRIPOS>MOLECULE
NONAME
76 80 1 0 0 
SMALL
USER_CHARGES


@<TRIPOS>ATOM
  1 H       -0.4520    -4.8390    -2.5220 H     1 <1>   0.4000 
  2 N       -0.3770    -3.9310    -2.0380 N.pl3 1 <1>  -0.8840 
  3 H       -0.2380    -3.9940    -1.0180 H     1 <1>   0.4000 
  4 C       -1.2970    -2.9690    -2.4480 C.2   1 <1>   0.4620 
  5 N       -1.6210    -1.9170    -1.7480 N.2   1 <1>  -0.5650 
  6 C       -2.5570    -1.1650    -2.4310 C.2   1 <1>   0.1410 
  7 C       -2.9030    -1.6880    -3.6490 C.2   1 <1>  -0.1100 
  8 H       -3.5960    -1.2900    -4.3450 H     1 <1>   0.1500 
  9 S       -2.0700    -3.1470    -3.9770 S.3   1 <1>  -0.0800 
 10 C       -3.1170     0.0710    -1.8890 C.2   1 <1>   0.5360 
 11 N       -3.8340     0.8330    -2.6440 N.2   1 <1>  -0.5130 
 12 O       -4.4270     1.8810    -2.0670 O.3   1 <1>  -0.2170 
 13 C       -5.1430     2.8010    -2.9300 C.3   1 <1>   0.0940 
 14 H       -4.5070     3.1410    -3.7380 H     1 <1>   0.0800 
 15 C       -5.5710     3.9860    -2.0780 C.2   1 <1>   0.9060 
 16 O       -5.3870     5.1250    -2.5600 O.co2 1 <1>  -0.9000 
 17 O       -6.0980     3.7700    -0.9630 O.co2 1 <1>  -0.9000 
 18 C       -6.3950     2.1190    -3.5350 C.3   1 <1>   0.1200 
 19 H       -6.1020     1.3210    -4.2140 H     1 <1>   0.0800 
 20 H       -6.9600     2.8590    -4.1020 H     1 <1>   0.0800 
 21 O       -7.2270     1.6200    -2.4470 O.3   1 <1>  -0.3630 
 22 C       -7.3500     0.3320    -1.9880 C.ar  1 <1>   0.0820 
 23 C       -8.1800     0.1310    -0.8840 C.ar  1 <1>  -0.1500 
 24 H       -8.6960     0.9480    -0.4500 H     1 <1>   0.1500 
 25 C       -8.3140    -1.1430    -0.3510 C.ar  1 <1>  -0.1500 
 26 H       -8.9370    -1.2970     0.4920 H     1 <1>   0.1500 
 27 C       -7.6210    -2.2230    -0.9150 C.ar  1 <1>  -0.0220 
 28 C       -6.8250    -2.0140    -2.0500 C.ar  1 <1>  -0.1500 
 29 H       -6.3290    -2.8290    -2.5090 H     1 <1>   0.1500 
 30 C       -6.6830    -0.7430    -2.5860 C.ar  1 <1>  -0.1500 
 31 H       -6.0740    -0.6060    -3.4390 H     1 <1>   0.1500 
 32 C       -7.7390    -3.5460    -0.3270 C.cat 1 <1>   0.7310 
 33 N       -6.7140    -4.2590     0.1300 N.pl3 1 <1>  -0.7940 
 34 H       -6.8990    -5.2110     0.4910 H     1 <1>   0.4500 
 35 C       -5.3260    -3.7970     0.1480 C.3   1 <1>   0.4100 
 36 H       -5.2130    -2.7130     0.1940 H     1 <1>   0.0800 
 37 C       -4.5560    -4.3670    -1.0580 C.3   1 <1>  -0.1600 
 38 H       -5.1820    -4.9750    -1.7110 H     1 <1>   0.0800 
 39 H       -4.1070    -3.5480    -1.6170 H     1 <1>   0.0800 
 40 C       -3.4620    -5.2220    -0.4210 C.3   1 <1>   0.3430 
 41 H       -2.5480    -5.2270    -1.0150 H     1 <1>   0.0800 
 42 H       -3.8440    -6.2380    -0.3150 H     1 <1>   0.0800 
 43 N       -3.2370    -4.6660     0.9150 N.4   1 <1>  -0.9060 
 44 H       -2.7720    -3.7740     0.8300 H     1 <1>   0.4500 
 45 H       -2.7290    -5.2900     1.5250 H     1 <1>   0.4500 
 46 C       -4.6230    -4.4440     1.3400 C.3   1 <1>   0.3430 
 47 H       -5.0850    -5.4120     1.5350 H     1 <1>   0.0800 
 48 H       -4.6750    -3.8200     2.2310 H     1 <1>   0.0800 
 49 N       -8.9160    -4.1330    -0.2030 N.pl3 1 <1>  -0.7540 
 50 H       -8.9910    -5.0740     0.2190 H     1 <1>   0.4500 
 51 H       -9.7750    -3.6560    -0.5260 H     1 <1>   0.4500 
 52 C       -2.8560     0.4310    -0.4990 C.2   1 <1>   0.6300 
 53 O       -2.4080     1.5280    -0.1570 O.2   1 <1>  -0.5700 
 54 N       -3.1450    -0.5010     0.4710 N.am  1 <1>  -0.6550 
 55 H       -3.5780    -1.3930     0.1840 H     1 <1>   0.3700 
 56 C       -3.1640    -0.1820     1.9010 C.3   1 <1>   0.2780 
 57 H       -2.3340     0.4480     2.1950 H     1 <1>   0.0000 
 58 C       -3.3230    -1.4610     2.7390 C.2   1 <1>   0.7530 
 59 O       -2.6360    -2.4290     3.0100 O.2   1 <1>  -0.5700 
 60 N       -4.5890    -1.0600     3.0670 N.am  1 <1>  -0.6810 
 61 C       -4.5580     0.2680     2.4440 C.3   1 <1>   0.3070 
 62 H       -4.5030     1.0980     3.1360 H     1 <1>   0.0000 
 63 C       -5.6390     0.4810     1.3600 C.3   1 <1>   0.0960 
 64 H       -5.9450    -0.4730     0.9520 H     1 <1>   0.0800 
 65 H       -5.2510     1.1600     0.6130 H     1 <1>   0.0800 
 66 N       -6.7660     1.1410     2.0110 N.pl3 1 <1>   0.3140 
 67 N       -7.8310     0.5150     2.5120 N.2   1 <1>  -0.7070 
 68 C       -8.5360     1.4970     2.9720 C.2   1 <1>   0.3660 
 69 H       -9.4710     1.3530     3.4490 H     1 <1>   0.1500 
 70 N       -7.9880     2.7160     2.7970 N.2   1 <1>  -0.5650 
 71 C       -6.8820     2.4610     2.1940 C.2   1 <1>   0.0360 
 72 H       -6.1330     3.1340     1.8640 H     1 <1>   0.1500 
 73 S       -5.7650    -1.8400     3.9940 S.o2  1 <1>   1.5880 
 74 O       -6.3070    -0.8240     4.8710 O.co2 1 <1>  -0.8170 
 75 O       -5.0730    -2.8940     4.7060 O.co2 1 <1>  -0.8170 
 76 O       -6.7320    -2.3450     3.0430 O.co2 1 <1>  -0.8170 
@<TRIPOS>BOND
  1   1   2  1   
  2   2   3  1   
  3   2   4  1   
  4   4   5  2   
  5   4   9  1   
  6   5   6  1   
  7   6   7  2   
  8   6  10  1   
  9   7   8  1   
 10   7   9  1   
 11  10  11  2   
 12  10  52  1   
 13  11  12  1   
 14  12  13  1   
 15  13  14  1   
 16  13  15  1   
 17  13  18  1   
 18  15  16  ar  
 19  15  17  ar  
 20  18  19  1   
 21  18  20  1   
 22  18  21  1   
 23  21  22  1   
 24  22  23  ar  
 25  22  30  ar  
 26  23  24  1   
 27  23  25  ar  
 28  25  26  1   
 29  25  27  ar  
 30  27  28  ar  
 31  27  32  1   
 32  28  29  1   
 33  28  30  ar  
 34  30  31  1   
 35  32  33  ar  
 36  32  49  ar  
 37  33  34  1   
 38  33  35  1   
 39  35  36  1   
 40  35  37  1   
 41  35  46  1   
 42  37  38  1   
 43  37  39  1   
 44  37  40  1   
 45  40  41  1   
 46  40  42  1   
 47  40  43  1   
 48  43  44  1   
 49  43  45  1   
 50  43  46  1   
 51  46  47  1   
 52  46  48  1   
 53  49  50  1   
 54  49  51  1   
 55  52  53  2   
 56  52  54  am  
 57  54  55  1   
 58  54  56  1   
 59  56  57  1   
 60  56  58  1   
 61  56  61  1   
 62  58  59  2   
 63  58  60  am  
 64  60  61  1   
 65  60  73  am  
 66  61  62  1   
 67  61  63  1   
 68  63  64  1   
 69  63  65  1   
 70  63  66  1   
 71  66  67  1   
 72  66  71  1   
 73  67  68  2   
 74  68  69  1   
 75  68  70  1   
 76  70  71  2   
 77  71  72  1   
 78  73  74  ar  
 79  73  75  ar  
 80  73  76  ar  
@<TRIPOS>SUBSTRUCTURE
  1 ****  63 GROUP 4 **** **** 0
@<TRIPOS>PROPERTY_DATA
restraint_1_dist	|	6.40871
restraint_2_dist	|	6.87603
NMR_conf	|	True
E_initial	|	142.624
glob	|	0.44503
rgyr	|	4.1807
Boltzmann_pop(%)	|	2.0228
mol_super_score	|	-20.0521
AM1_dipole	|	35.1403
dipole	|	12.2878

# MOE 2018.01 (io_trps.svl 2018.01)

