@<TRIPOS>MOLECULE
NONAME
76 80 1 0 0 
SMALL
USER_CHARGES


@<TRIPOS>ATOM
  1 H        2.5640     1.1790     2.2380 H     1 <1>   0.4000 
  2 N        1.7970     1.0020     1.5800 N.pl3 1 <1>  -0.8840 
  3 H        1.4970     1.8150     1.0270 H     1 <1>   0.4000 
  4 C        0.7170     0.3980     2.1640 C.2   1 <1>   0.4620 
  5 N       -0.4800     0.5660     1.7080 N.2   1 <1>  -0.5650 
  6 C       -1.3820    -0.1560     2.4780 C.2   1 <1>   0.1410 
  7 C       -0.7880    -0.8450     3.5040 C.2   1 <1>  -0.1100 
  8 H       -1.2700    -1.4710     4.2100 H     1 <1>   0.1500 
  9 S        0.9080    -0.6110     3.5430 S.3   1 <1>  -0.0800 
 10 C       -2.8270    -0.2090     2.2180 C.2   1 <1>   0.5360 
 11 N       -3.5520    -1.0380     2.9120 N.2   1 <1>  -0.5130 
 12 O       -4.8690    -0.9680     2.7660 O.3   1 <1>  -0.2170 
 13 C       -5.5850    -2.2200     3.0250 C.3   1 <1>   0.0940 
 14 H       -4.9330    -2.9820     3.4250 H     1 <1>   0.0800 
 15 C       -6.1200    -2.7340     1.6970 C.2   1 <1>   0.9060 
 16 O       -6.9470    -3.6770     1.6680 O.co2 1 <1>  -0.9000 
 17 O       -5.7210    -2.2400     0.6110 O.co2 1 <1>  -0.9000 
 18 C       -6.7470    -1.9950     4.0330 C.3   1 <1>   0.1200 
 19 H       -6.3200    -1.9810     5.0350 H     1 <1>   0.0800 
 20 H       -7.4610    -2.8170     3.9770 H     1 <1>   0.0800 
 21 O       -7.4230    -0.7120     3.8110 O.3   1 <1>  -0.3630 
 22 C       -7.9550    -0.3810     2.6140 C.ar  1 <1>   0.0820 
 23 C       -9.0850    -1.0300     2.1190 C.ar  1 <1>  -0.1500 
 24 H       -9.6040    -1.7210     2.7320 H     1 <1>   0.1500 
 25 C       -9.5050    -0.7570     0.8210 C.ar  1 <1>  -0.1500 
 26 H      -10.3860    -1.2110     0.4540 H     1 <1>   0.1500 
 27 C       -8.7550     0.1090     0.0060 C.ar  1 <1>  -0.0220 
 28 C       -7.7100     0.8520     0.5870 C.ar  1 <1>  -0.1500 
 29 H       -7.1900     1.5900     0.0380 H     1 <1>   0.1500 
 30 C       -7.3090     0.6050     1.8850 C.ar  1 <1>  -0.1500 
 31 H       -6.4950     1.1320     2.3140 H     1 <1>   0.1500 
 32 C       -8.9590     0.2170    -1.4350 C.cat 1 <1>   0.7310 
 33 N       -9.1070    -0.7520    -2.3160 N.pl3 1 <1>  -0.7940 
 34 H       -8.9800    -0.4190    -3.2980 H     1 <1>   0.4500 
 35 C       -8.8430    -2.2050    -2.2340 C.3   1 <1>   0.4100 
 36 H       -8.6440    -2.6120    -3.2290 H     1 <1>   0.0800 
 37 C      -10.0190    -3.0050    -1.6500 C.3   1 <1>  -0.1600 
 38 H      -10.8420    -2.3710    -1.3270 H     1 <1>   0.0800 
 39 H      -10.3790    -3.7070    -2.4020 H     1 <1>   0.0800 
 40 C       -9.4010    -3.7830    -0.4790 C.3   1 <1>   0.3430 
 41 H       -9.8910    -4.7460    -0.3110 H     1 <1>   0.0800 
 42 H       -9.5020    -3.1820     0.4280 H     1 <1>   0.0800 
 43 N       -7.9740    -3.9260    -0.7810 N.4   1 <1>  -0.9060 
 44 H       -7.7770    -4.6580    -1.4440 H     1 <1>   0.4500 
 45 H       -7.4220    -4.0480     0.0940 H     1 <1>   0.4500 
 46 C       -7.6610    -2.5970    -1.3380 C.3   1 <1>   0.3430 
 47 H       -7.6040    -1.8830    -0.5180 H     1 <1>   0.0800 
 48 H       -6.7090    -2.5840    -1.8690 H     1 <1>   0.0800 
 49 N       -8.8700     1.3590    -2.0430 N.pl3 1 <1>  -0.7540 
 50 H       -8.5250     1.3480    -3.0330 H     1 <1>   0.4500 
 51 H       -8.6350     2.2030    -1.5030 H     1 <1>   0.4500 
 52 C       -3.3850     0.6360     1.1330 C.2   1 <1>   0.6300 
 53 O       -3.1430     1.8400     1.0070 O.2   1 <1>  -0.5700 
 54 N       -4.1970     0.1090     0.1400 N.am  1 <1>  -0.6550 
 55 H       -4.6620    -0.8110     0.3380 H     1 <1>   0.3700 
 56 C       -4.0320     0.5930    -1.2890 C.3   1 <1>   0.2780 
 57 H       -3.2270     1.3110    -1.3670 H     1 <1>   0.0000 
 58 C       -5.3380     1.0530    -2.0100 C.2   1 <1>   0.7530 
 59 O       -6.0640     2.0330    -2.0010 O.2   1 <1>  -0.5700 
 60 N       -5.3430    -0.1070    -2.6790 N.am  1 <1>  -0.6810 
 61 C       -3.9720    -0.5010    -2.4090 C.3   1 <1>   0.3070 
 62 H       -3.2730    -0.2570    -3.1990 H     1 <1>   0.0000 
 63 C       -3.8500    -1.9840    -2.0140 C.3   1 <1>   0.0960 
 64 H       -3.7150    -2.5610    -2.9170 H     1 <1>   0.0800 
 65 H       -4.7170    -2.2950    -1.4620 H     1 <1>   0.0800 
 66 N       -2.6620    -2.1260    -1.1880 N.pl3 1 <1>   0.3140 
 67 N       -1.4870    -1.5630    -1.4630 N.2   1 <1>  -0.7070 
 68 C       -0.7530    -1.9380    -0.4630 C.2   1 <1>   0.3660 
 69 H        0.2640    -1.6510    -0.3530 H     1 <1>   0.1500 
 70 N       -1.3940    -2.7190     0.4310 N.2   1 <1>  -0.5650 
 71 C       -2.5830    -2.8180    -0.0480 C.2   1 <1>   0.0360 
 72 H       -3.4210    -3.3380     0.3440 H     1 <1>   0.1500 
 73 S       -6.1490    -0.4520    -4.0500 S.o2  1 <1>   1.5880 
 74 O       -5.2350    -0.1420    -5.1040 O.co2 1 <1>  -0.8170 
 75 O       -7.3440     0.3630    -4.0400 O.co2 1 <1>  -0.8170 
 76 O       -6.4450    -1.8560    -3.9220 O.co2 1 <1>  -0.8170 
@<TRIPOS>BOND
  1   1   2  1   
  2   2   3  1   
  3   2   4  1   
  4   4   5  2   
  5   4   9  1   
  6   5   6  1   
  7   6   7  2   
  8   6  10  1   
  9   7   8  1   
 10   7   9  1   
 11  10  11  2   
 12  10  52  1   
 13  11  12  1   
 14  12  13  1   
 15  13  14  1   
 16  13  15  1   
 17  13  18  1   
 18  15  16  ar  
 19  15  17  ar  
 20  18  19  1   
 21  18  20  1   
 22  18  21  1   
 23  21  22  1   
 24  22  23  ar  
 25  22  30  ar  
 26  23  24  1   
 27  23  25  ar  
 28  25  26  1   
 29  25  27  ar  
 30  27  28  ar  
 31  27  32  1   
 32  28  29  1   
 33  28  30  ar  
 34  30  31  1   
 35  32  33  ar  
 36  32  49  ar  
 37  33  34  1   
 38  33  35  1   
 39  35  36  1   
 40  35  37  1   
 41  35  46  1   
 42  37  38  1   
 43  37  39  1   
 44  37  40  1   
 45  40  41  1   
 46  40  42  1   
 47  40  43  1   
 48  43  44  1   
 49  43  45  1   
 50  43  46  1   
 51  46  47  1   
 52  46  48  1   
 53  49  50  1   
 54  49  51  1   
 55  52  53  2   
 56  52  54  am  
 57  54  55  1   
 58  54  56  1   
 59  56  57  1   
 60  56  58  1   
 61  56  61  1   
 62  58  59  2   
 63  58  60  am  
 64  60  61  1   
 65  60  73  am  
 66  61  62  1   
 67  61  63  1   
 68  63  64  1   
 69  63  65  1   
 70  63  66  1   
 71  66  67  1   
 72  66  71  1   
 73  67  68  2   
 74  68  69  1   
 75  68  70  1   
 76  70  71  2   
 77  71  72  1   
 78  73  74  ar  
 79  73  75  ar  
 80  73  76  ar  
@<TRIPOS>SUBSTRUCTURE
  1 ****  54 GROUP 4 **** **** 0
@<TRIPOS>PROPERTY_DATA
restraint_1_dist	|	6.74749
restraint_2_dist	|	6.54511
NMR_conf	|	True
E_initial	|	-48.7949
glob	|	0.423852
rgyr	|	4.29261
Boltzmann_pop(%)	|	15.7734
mol_super_score	|	-17.4682
AM1_dipole	|	12.6554
dipole	|	4.20103

# MOE 2018.01 (io_trps.svl 2018.01)

